#

@<TRIPOS>MOLECULE
LIG
 74  78  0 0 0
SMALL
GASTEIGER

@<TRIPOS>ATOM
      1 C1         -1.1990    1.8122    3.9467 C.3       1 LIG        -0.0445
      2 C2         -0.2157    3.0292    3.9076 C.3       1 LIG         0.0424
      3 N1         -0.8868    4.3871    3.7421 N.3       1 LIG        -0.2809
      4 C3          0.0278    5.5669    4.0280 C.3       1 LIG         0.0599
      5 C4         -0.5395    6.9363    3.9345 C.2       1 LIG         0.0775
      6 N2         -0.8544    7.6428    5.0536 N.2       1 LIG        -0.2279
      7 C5         -1.3745    8.8916    4.9581 C.2       1 LIG         0.0988
      8 N3         -1.7007    9.5810    6.0585 N.3       1 LIG        -0.0765
      9 N4         -1.5815    9.4446    3.7393 N.2       1 LIG        -0.2093
     10 C6         -1.2819    8.7648    2.6050 C.2       1 LIG         0.1014
     11 N5         -1.5801    9.3891    1.4334 N.3       1 LIG         0.0324
     12 C7         -1.5315    8.9267    0.1379 C.2       1 LIG        -0.0366
     13 C8         -0.7212    7.8392   -0.2781 C.2       1 LIG        -0.0573
     14 C9         -0.7412    7.3802   -1.6063 C.2       1 LIG        -0.0711
     15 C10        -1.5521    8.0129   -2.5572 C.2       1 LIG        -0.0824
     16 C11        -2.3317    9.1157   -2.1784 C.2       1 LIG        -0.0676
     17 C12        -2.3319    9.5864   -0.8426 C.2       1 LIG        -0.0532
     18 C13        -3.1784   10.7600   -0.4980 C.3       1 LIG         0.0020
     19 N6         -0.7558    7.5175    2.7242 N.2       1 LIG        -0.2261
     20 C14        -1.6246    4.5283    2.4312 C.3       1 LIG         0.0599
     21 C15        -2.8408    5.3658    2.5031 C.2       1 LIG         0.0775
     22 N7         -3.3456    5.8023    3.6862 N.2       1 LIG        -0.2279
     23 C16        -4.4469    6.5892    3.7174 C.2       1 LIG         0.0988
     24 N8         -4.9152    7.0258    4.8954 N.3       1 LIG        -0.0765
     25 N9         -5.0648    6.9296    2.5579 N.2       1 LIG        -0.2093
     26 C17        -4.5896    6.4986    1.3602 C.2       1 LIG         0.1014
     27 N10        -5.2593    6.8981    0.2407 N.3       1 LIG         0.0324
     28 C18        -5.0405    6.5731   -1.0779 C.2       1 LIG        -0.0366
     29 C19        -5.4504    7.4770   -2.1053 C.2       1 LIG        -0.0532
     30 C20        -6.1114    8.7858   -1.8527 C.3       1 LIG         0.0020
     31 C21        -5.2327    7.1367   -3.4629 C.2       1 LIG        -0.0676
     32 C22        -4.6164    5.9269   -3.8139 C.2       1 LIG        -0.0824
     33 C23        -4.2304    5.0244   -2.8127 C.2       1 LIG        -0.0711
     34 C24        -4.4580    5.3374   -1.4614 C.2       1 LIG        -0.0573
     35 N11        -3.4699    5.7261    1.3537 N.2       1 LIG        -0.2261
     36 C25         0.6338    2.9310    5.1272 C.2       1 LIG         0.0085
     37 C26         2.0343    2.8783    5.1875 C.2       1 LIG        -0.0224
     38 C27         2.5833    2.7524    6.4759 C.2       1 LIG        -0.0336
     39 C28         1.6537    2.6929    7.5185 C.2       1 LIG         0.0121
     40 C29         1.9547    2.4621    8.9772 C.3       1 LIG         0.0231
     41 S1          0.0680    2.8600    6.7882 S.3       1 LIG        -0.2328
     42 H1         -1.4111    1.5497    4.9832 H         1 LIG         0.0250
     43 H2         -2.1276    2.0791    3.4422 H         1 LIG         0.0250
     44 H3         -0.7431    0.9604    3.4422 H         1 LIG         0.0250
     45 H4          0.4303    2.9948    3.0303 H         1 LIG         0.0524
     46 H5          0.3134    5.4634    5.0749 H         1 LIG         0.0514
     47 H6          0.7901    5.5362    3.2496 H         1 LIG         0.0514
     48 H7         -0.9851    9.8411    6.7221 H         1 LIG         0.1273
     49 H8         -2.6623    9.8411    6.2249 H         1 LIG         0.1273
     50 H9         -1.8854   10.3457    1.5424 H         1 LIG         0.1373
     51 H10        -0.0675    7.3443    0.4401 H         1 LIG         0.0639
     52 H11        -0.1254    6.5302   -1.9002 H         1 LIG         0.0623
     53 H12        -1.5762    7.6495   -3.5846 H         1 LIG         0.0622
     54 H13        -2.9443    9.6127   -2.9306 H         1 LIG         0.0625
     55 H14        -3.2459   10.8535    0.5858 H         1 LIG         0.0280
     56 H15        -2.7329   11.6638   -0.9137 H         1 LIG         0.0280
     57 H16        -4.1766   10.6225   -0.9137 H         1 LIG         0.0280
     58 H17        -0.9497    5.0584    1.7591 H         1 LIG         0.0514
     59 H18        -1.9777    3.5299    2.1731 H         1 LIG         0.0514
     60 H19        -4.2787    7.1902    5.6623 H         1 LIG         0.1273
     61 H20        -5.9044    7.1902    5.0160 H         1 LIG         0.1273
     62 H21        -6.0305    7.5270    0.4135 H         1 LIG         0.1373
     63 H22        -6.1942    8.9496   -0.7782 H         1 LIG         0.0280
     64 H23        -5.5178    9.5845   -2.2974 H         1 LIG         0.0280
     65 H24        -7.1066    8.7820   -2.2974 H         1 LIG         0.0280
     66 H25        -5.5454    7.8192   -4.2532 H         1 LIG         0.0625
     67 H26        -4.4380    5.6887   -4.8625 H         1 LIG         0.0622
     68 H27        -3.7546    4.0820   -3.0841 H         1 LIG         0.0623
     69 H28        -4.1785    4.6103   -0.6990 H         1 LIG         0.0639
     70 H29         2.6546    2.9316    4.2928 H         1 LIG         0.0634
     71 H30         3.6575    2.7042    6.6544 H         1 LIG         0.0634
     72 H31         1.9955    1.3909    9.1747 H         1 LIG         0.0288
     73 H32         2.9148    2.9142    9.2260 H         1 LIG         0.0288
     74 H33         1.1716    2.9142    9.5858 H         1 LIG         0.0288
@<TRIPOS>BOND
     1    1    2 1  
     2    2    3 1  
     3    3    4 1  
     4    4    5 1  
     5    5    6 2  
     6    6    7 1  
     7    7    8 1  
     8    7    9 2  
     9    9   10 1  
    10   10   11 1  
    11   11   12 1  
    12   12   13 2  
    13   13   14 1  
    14   14   15 2  
    15   15   16 1  
    16   16   17 2  
    17   12   17 1  
    18   17   18 1  
    19   10   19 2  
    20    5   19 1  
    21    3   20 1  
    22   20   21 1  
    23   21   22 2  
    24   22   23 1  
    25   23   24 1  
    26   23   25 2  
    27   25   26 1  
    28   26   27 1  
    29   27   28 1  
    30   28   29 2  
    31   29   30 1  
    32   29   31 1  
    33   31   32 2  
    34   32   33 1  
    35   33   34 2  
    36   28   34 1  
    37   26   35 2  
    38   21   35 1  
    39    2   36 1  
    40   36   37 2  
    41   37   38 1  
    42   38   39 2  
    43   39   40 1  
    44   39   41 1  
    45   36   41 1  
    46    1   42 1  
    47    1   43 1  
    48    1   44 1  
    49    2   45 1  
    50    4   46 1  
    51    4   47 1  
    52    8   48 1  
    53    8   49 1  
    54   11   50 1  
    55   13   51 1  
    56   14   52 1  
    57   15   53 1  
    58   16   54 1  
    59   18   55 1  
    60   18   56 1  
    61   18   57 1  
    62   20   58 1  
    63   20   59 1  
    64   24   60 1  
    65   24   61 1  
    66   27   62 1  
    67   30   63 1  
    68   30   64 1  
    69   30   65 1  
    70   31   66 1  
    71   32   67 1  
    72   33   68 1  
    73   34   69 1  
    74   37   70 1  
    75   38   71 1  
    76   40   72 1  
    77   40   73 1  
    78   40   74 1  
