@<TRIPOS>MOLECULE
LIG
52 54 1 0 0 
SMALL
USER_CHARGES


@<TRIPOS>ATOM
  1 C1     -10.3403    15.9179     3.2819 C.3   1 <1>   0.0400 
  2 O1      -9.2604    15.0504     3.6753 O.3   1 <1>  -0.5600 
  3 C2      -9.6544    13.6708     3.8150 C.3   1 <1>   0.1200 
  4 C3      -8.4145    12.7800     4.0737 C.3   1 <1>  -0.1600 
  5 C4      -8.7312    11.2866     4.4161 C.3   1 <1>  -0.0800 
  6 C5      -7.4165    10.4810     4.6656 C.3   1 <1>  -0.1600 
  7 C6      -7.6756     8.9679     4.9085 C.3   1 <1>   0.3430 
  8 N1      -8.5669     8.3372     3.8891 N.4   1 <1>  -0.8290 
  9 H1      -8.8274     7.4563     4.3089 H     1 <1>   0.4500 
 10 C7      -9.8373     9.0840     3.6886 C.3   1 <1>   0.3430 
 11 C8      -9.5978    10.5726     3.3324 C.3   1 <1>  -0.1600 
 12 S1      -7.7815     7.8052     2.3880 S.o   1 <1>   1.8110 
 13 O2      -6.9334     9.0132     1.7664 O.3   1 <1>  -0.6500 
 14 O3      -8.8921     7.3522     1.3245 O.3   1 <1>  -0.6500 
 15 N2      -6.7141     6.4195     2.6953 N.3   1 <1>  -0.8494 
 16 C9      -7.3278     5.5006     3.6961 C.3   1 <1>   0.1157 
 17 C10     -6.2950     5.6773     1.4639 C.3   1 <1>   0.3757 
 18 C11     -5.7398     6.4906     0.3660 C.2   1 <1>   0.0065 
 19 N3      -6.1295     6.3783    -0.9205 N.2   1 <1>  -0.5653 
 20 C12     -5.4052     7.2646    -1.6152 C.ar  1 <1>   0.2272 
 21 C13     -5.4049     7.5437    -2.9904 C.ar  1 <1>  -0.1500 
 22 C14     -4.5356     8.5500    -3.4683 C.ar  1 <1>   0.1770 
 23 CL1     -4.5087     8.9082    -5.1225 Cl    1 <1>  -0.1770 
 24 C15     -3.6953     9.2540    -2.5704 C.ar  1 <1>  -0.1500 
 25 C16     -3.7012     8.9520    -1.1904 C.ar  1 <1>  -0.1500 
 26 C17     -4.5656     7.9409    -0.7373 C.ar  1 <1>  -0.1516 
 27 N4      -4.7840     7.4329     0.4807 N.pl3 1 <1>   0.0332 
 28 H25     -4.3138     7.7099     1.3305 H     1 <1>   0.2700 
 29 H1     -10.8317    16.3126     4.1711 H     1 <1>   0.0800 
 30 H2      -9.9459    16.7427     2.6883 H     1 <1>   0.0800 
 31 H3     -11.0607    15.3550     2.6883 H     1 <1>   0.0800 
 32 H4     -10.2802    13.6390     4.7068 H     1 <1>   0.0800 
 33 H5     -10.0703    13.3908     2.8471 H     1 <1>   0.0800 
 34 H6      -7.8718    12.7588     3.1287 H     1 <1>   0.0800 
 35 H7      -7.9420    13.1944     4.9643 H     1 <1>   0.0800 
 36 H8      -9.3252    11.3069     5.3298 H     1 <1>   0.0800 
 37 H9      -6.8426    10.5425     3.7409 H     1 <1>   0.0800 
 38 H10     -6.9961    10.8663     5.5946 H     1 <1>   0.0800 
 39 H11     -6.7150     8.4655     4.7949 H     1 <1>   0.0800 
 40 H12     -8.2223     8.8927     5.8484 H     1 <1>   0.0800 
 41 H13    -10.3099     8.6228     2.8214 H     1 <1>   0.0800 
 42 H14    -10.3388     9.0665     4.6562 H     1 <1>   0.0800 
 43 H15     -9.0094    10.5754     2.4148 H     1 <1>   0.0800 
 44 H16    -10.5764    11.0521     3.3538 H     1 <1>   0.0800 
 45 H17     -7.0942     5.8504     4.7017 H     1 <1>   0.0800 
 46 H18     -8.4090     5.4841     3.5592 H     1 <1>   0.0800 
 47 H19     -6.9288     4.4955     3.5592 H     1 <1>   0.0800 
 48 H20     -5.4759     5.0297     1.7765 H     1 <1>   0.0800 
 49 H21     -7.2088     5.2431     1.0582 H     1 <1>   0.0800 
 50 H22     -6.0602     6.9952    -3.6670 H     1 <1>   0.1500 
 51 H23     -3.0366    10.0372    -2.9456 H     1 <1>   0.1500 
 52 H24     -3.0553     9.4854    -0.4930 H     1 <1>   0.1500 
@<TRIPOS>BOND
  1   1   2  1   
  2   1  29  1   
  3   1  30  1   
  4   1  31  1   
  5   2   3  1   
  6   3   4  1   
  7   3  32  1   
  8   3  33  1   
  9   4   5  1   
 10   4  34  1   
 11   4  35  1   
 12   5   6  1   
 13   5  11  1   
 14   5  36  1   
 15   6   7  1   
 16   6  37  1   
 17   6  38  1   
 18   7   8  1   
 19   7  39  1   
 20   7  40  1   
 21   8   9  1   
 22   8  10  1   
 23   8  12  1   
 24  10  11  1   
 25  10  41  1   
 26  10  42  1   
 27  11  43  1   
 28  11  44  1   
 29  12  13  1   
 30  12  14  1   
 31  12  15  1   
 32  15  16  1   
 33  15  17  1   
 34  16  45  1   
 35  16  46  1   
 36  16  47  1   
 37  17  18  1   
 38  17  48  1   
 39  17  49  1   
 40  18  19  2   
 41  18  27  1   
 42  19  20  1   
 43  20  21  ar  
 44  20  26  ar  
 45  21  22  ar  
 46  21  50  1   
 47  22  23  1   
 48  22  24  ar  
 49  24  25  ar  
 50  24  51  1   
 51  25  26  ar  
 52  25  52  1   
 53  26  27  1   
 54  27  28  1   
@<TRIPOS>SUBSTRUCTURE
  1 ****  13 GROUP 4 **** **** 0

# MOE 2020.09 (io_trps.svl 2020.01)
