#

@<TRIPOS>MOLECULE
LIG
 48  50  0 0 0
SMALL
GASTEIGER

@<TRIPOS>ATOM
      1 C1          1.2693   -0.1882   -1.0951 C.3       1 LIG         0.0356
      2 O1         -0.0365    0.0183   -0.5307 O.3       1 LIG        -0.3842
      3 C2         -0.0350    0.4982    0.8295 C.3       1 LIG         0.0492
      4 C3         -1.4863    0.8171    1.2885 C.3       1 LIG        -0.0153
      5 C4         -1.5146    1.3788    2.7430 C.3       1 LIG        -0.0339
      6 C5         -2.9648    1.6109    3.2496 C.3       1 LIG         0.0178
      7 N1         -3.8583    0.4317    3.0543 N.3       1 LIG         0.0139
      8 C6         -3.8538   -0.0827    1.6568 C.3       1 LIG         0.0178
      9 C7         -2.4275   -0.4185    1.1569 C.3       1 LIG        -0.0339
     10 S1         -3.7829   -0.8069    4.3247 S         1 LIG        -0.1421
     11 O2         -4.5146   -2.1436    3.8295 O.2       1 LIG        -0.1928
     12 O3         -2.2548   -1.1438    4.6619 O.2       1 LIG        -0.1928
     13 N2         -4.6035   -0.2349    5.7931 N.3       1 LIG         0.0136
     14 C8         -5.8312    0.5302    5.4293 C.3       1 LIG         0.0061
     15 C9         -4.8991   -1.3191    6.7861 C.3       1 LIG         0.0457
     16 C10        -3.6751   -2.1495    7.2652 C.3       1 LIG         0.1125
     17 N3         -2.6764   -1.3592    7.8370 N.2       1 LIG        -0.1725
     18 N4         -2.3757   -1.6366    8.9983 N.2       1 LIG        -0.1778
     19 C11        -3.0896   -2.6413    9.4221 C.2       1 LIG         0.0256
     20 C12        -3.0796   -3.3139   10.6554 C.2       1 LIG         0.0063
     21 C13        -3.9750   -4.3908   10.8417 C.2       1 LIG        -0.0097
     22 C14        -4.8593   -4.7768    9.8060 C.2       1 LIG         0.0006
     23 Cl1        -5.9315   -6.0649   10.0411 Cl        1 LIG        -0.0829
     24 C15        -4.8465   -4.0932    8.5698 C.2       1 LIG         0.0020
     25 C16        -3.9471   -3.0243    8.4037 C.2       1 LIG         0.0213
     26 H1          1.9979   -0.3035   -0.2926 H         1 LIG         0.0529
     27 H2          1.2610   -1.0880   -1.7103 H         1 LIG         0.0529
     28 H3          1.5391    0.6701   -1.7103 H         1 LIG         0.0529
     29 H4          0.3303   -0.3363    1.4281 H         1 LIG         0.0569
     30 H5          0.5218    1.4349    0.8031 H         1 LIG         0.0569
     31 H6         -1.8611    1.5891    0.6165 H         1 LIG         0.0327
     32 H7         -1.0916    0.6016    3.3794 H         1 LIG         0.0284
     33 H8         -1.0470    2.3625    2.7002 H         1 LIG         0.0284
     34 H9         -2.9013    1.7444    4.3296 H         1 LIG         0.0445
     35 H10        -3.3914    2.3977    2.6274 H         1 LIG         0.0445
     36 H11        -4.4060   -1.0218    1.6916 H         1 LIG         0.0445
     37 H12        -4.2181    0.7413    1.0432 H         1 LIG         0.0445
     38 H13        -2.0373   -1.1803    1.8319 H         1 LIG         0.0284
     39 H14        -2.5176   -0.6291    0.0913 H         1 LIG         0.0284
     40 H15        -6.3429    0.8492    6.3373 H         1 LIG         0.0409
     41 H16        -5.5531    1.4056    4.8424 H         1 LIG         0.0409
     42 H17        -6.4946   -0.1050    4.8424 H         1 LIG         0.0409
     43 H18        -5.2718   -0.7941    7.6656 H         1 LIG         0.0472
     44 H19        -5.5462   -2.0145    6.2515 H         1 LIG         0.0472
     45 H20        -3.3193   -2.6833    6.3840 H         1 LIG         0.0637
     46 H21        -2.3953   -3.0082   11.4469 H         1 LIG         0.0646
     47 H22        -3.9835   -4.9273   11.7905 H         1 LIG         0.0638
     48 H23        -5.5167   -4.3844    7.7609 H         1 LIG         0.0642
@<TRIPOS>BOND
     1    1    2 1  
     2    2    3 1  
     3    3    4 1  
     4    4    5 1  
     5    5    6 1  
     6    6    7 1  
     7    7    8 1  
     8    8    9 1  
     9    4    9 1  
    10    7   10 1  
    11   10   11 1  
    12   10   12 1  
    13   10   13 1  
    14   13   14 1  
    15   13   15 1  
    16   15   16 1  
    17   16   17 1  
    18   17   18 2  
    19   18   19 1  
    20   19   20 2  
    21   20   21 1  
    22   21   22 2  
    23   22   23 1  
    24   22   24 1  
    25   24   25 2  
    26   16   25 1  
    27   19   25 1  
    28    1   26 1  
    29    1   27 1  
    30    1   28 1  
    31    3   29 1  
    32    3   30 1  
    33    4   31 1  
    34    5   32 1  
    35    5   33 1  
    36    6   34 1  
    37    6   35 1  
    38    8   36 1  
    39    8   37 1  
    40    9   38 1  
    41    9   39 1  
    42   14   40 1  
    43   14   41 1  
    44   14   42 1  
    45   15   43 1  
    46   15   44 1  
    47   16   45 1  
    48   20   46 1  
    49   21   47 1  
    50   24   48 1  
