#

@<TRIPOS>MOLECULE
LIG
 48  50  0 0 0
SMALL
GASTEIGER

@<TRIPOS>ATOM
      1 C1          3.9351  -11.2389   10.6136 C.3       1 LIG         0.0424
      2 O1          3.1729  -11.8995    9.5842 O.3       1 LIG        -0.2739
      3 C2          3.9577  -12.5309    8.6505 C.2       1 LIG         0.0004
      4 C3          4.4357  -11.8607    7.4917 C.2       1 LIG        -0.0028
      5 N1          4.0945  -10.5391    7.3797 N.3       1 LIG         0.0420
      6 C4          4.5122   -9.5616    6.5340 C.2       1 LIG         0.1015
      7 N2          5.3973   -9.6937    5.5107 N.2       1 LIG        -0.2086
      8 C5          5.7199   -8.6283    4.7332 C.2       1 LIG         0.0989
      9 N3          6.5983   -8.7717    3.7283 N.3       1 LIG        -0.0764
     10 N4          5.1532   -7.4190    4.9754 N.2       1 LIG        -0.2273
     11 C6          4.2729   -7.2652    5.9989 C.2       1 LIG         0.0776
     12 C7          3.6446   -5.9597    6.2735 C.3       1 LIG         0.0591
     13 N5          2.6181   -5.5564    5.2434 N.3       1 LIG        -0.2913
     14 C8          2.5091   -4.0655    5.1623 C.3       1 LIG        -0.0122
     15 C9          1.2935   -6.2918    5.3609 C.3       1 LIG         0.0416
     16 C10         0.0942   -5.7057    4.5591 C.3       1 LIG        -0.0445
     17 C11         1.4323   -7.7046    4.9261 C.2       1 LIG         0.0285
     18 C12         1.0482   -8.8552    5.6312 C.2       1 LIG        -0.0085
     19 C13         1.3436  -10.0805    5.0057 C.2       1 LIG         0.0048
     20 C14         1.9608   -9.9752    3.7575 C.2       1 LIG         0.0560
     21 Cl1         2.4572  -11.2466    2.7636 Cl        1 LIG        -0.0531
     22 S1          2.1330   -8.2653    3.4150 S.3       1 LIG        -0.1880
     23 N6          3.9723   -8.3402    6.7703 N.2       1 LIG        -0.2254
     24 C15         5.2080  -12.5985    6.5588 C.2       1 LIG        -0.0464
     25 C16         5.5229  -13.9499    6.7935 C.2       1 LIG        -0.0730
     26 C17         5.0476  -14.5983    7.9443 C.2       1 LIG        -0.0715
     27 C18         4.2568  -13.8926    8.8646 C.2       1 LIG        -0.0324
     28 H1          4.4076  -11.9857   11.2518 H         1 LIG         0.0535
     29 H2          4.7024  -10.6157   10.1543 H         1 LIG         0.0535
     30 H3          3.2718  -10.6157   11.2134 H         1 LIG         0.0535
     31 H4          3.4041  -10.2261    8.0472 H         1 LIG         0.1374
     32 H5          6.2701   -8.8257    2.7746 H         1 LIG         0.1273
     33 H6          7.5873   -8.8257    3.9259 H         1 LIG         0.1273
     34 H7          3.1038   -6.0890    7.2110 H         1 LIG         0.0514
     35 H8          4.4507   -5.2292    6.2055 H         1 LIG         0.0514
     36 H9          2.4786   -3.6481    6.1688 H         1 LIG         0.0394
     37 H10         3.3723   -3.6665    4.6295 H         1 LIG         0.0394
     38 H11         1.5971   -3.7963    4.6295 H         1 LIG         0.0394
     39 H12         1.0851   -6.2198    6.4284 H         1 LIG         0.0523
     40 H13        -0.6610   -5.3365    5.2529 H         1 LIG         0.0250
     41 H14         0.4429   -4.8855    3.9315 H         1 LIG         0.0250
     42 H15        -0.3387   -6.4847    3.9315 H         1 LIG         0.0250
     43 H16         0.5529   -8.8007    6.6007 H         1 LIG         0.0635
     44 H17         1.1105  -11.0449    5.4571 H         1 LIG         0.0647
     45 H18         5.5652  -12.1195    5.6472 H         1 LIG         0.0640
     46 H19         6.1384  -14.4975    6.0799 H         1 LIG         0.0623
     47 H20         5.2916  -15.6456    8.1224 H         1 LIG         0.0623
     48 H21         3.8738  -14.4033    9.7481 H         1 LIG         0.0650
@<TRIPOS>BOND
     1    1    2 1  
     2    2    3 1  
     3    3    4 2  
     4    4    5 1  
     5    5    6 1  
     6    6    7 2  
     7    7    8 1  
     8    8    9 1  
     9    8   10 2  
    10   10   11 1  
    11   11   12 1  
    12   12   13 1  
    13   13   14 1  
    14   13   15 1  
    15   15   16 1  
    16   15   17 1  
    17   17   18 2  
    18   18   19 1  
    19   19   20 2  
    20   20   21 1  
    21   20   22 1  
    22   17   22 1  
    23   11   23 2  
    24    6   23 1  
    25    4   24 1  
    26   24   25 2  
    27   25   26 1  
    28   26   27 2  
    29    3   27 1  
    30    1   28 1  
    31    1   29 1  
    32    1   30 1  
    33    5   31 1  
    34    9   32 1  
    35    9   33 1  
    36   12   34 1  
    37   12   35 1  
    38   14   36 1  
    39   14   37 1  
    40   14   38 1  
    41   15   39 1  
    42   16   40 1  
    43   16   41 1  
    44   16   42 1  
    45   18   43 1  
    46   19   44 1  
    47   24   45 1  
    48   25   46 1  
    49   26   47 1  
    50   27   48 1  
