#

@<TRIPOS>MOLECULE
LIG
 87  92  0 0 0
SMALL
GASTEIGER

@<TRIPOS>ATOM
      1 C1          0.7825   12.9757  -10.6405 C.3       1 LIG        -0.0612
      2 C2         -0.6617   13.0888  -11.1813 C.3       1 LIG         0.0080
      3 C3         -0.9988   11.9548  -12.0975 C.2       1 LIG        -0.0518
      4 C4         -0.8607   12.1691  -13.4928 C.2       1 LIG        -0.0661
      5 C5         -1.1427   11.1488  -14.4134 C.2       1 LIG        -0.0820
      6 C6         -1.5570    9.8924  -13.9519 C.2       1 LIG        -0.0703
      7 C7         -1.6942    9.6595  -12.5738 C.2       1 LIG        -0.0568
      8 C8         -1.4316   10.6791  -11.6235 C.2       1 LIG        -0.0350
      9 N1         -1.5609   10.5085  -10.2671 N.3       1 LIG         0.0327
     10 C9         -2.0622    9.4946   -9.5150 C.2       1 LIG         0.1014
     11 N2         -2.6437    8.3497   -9.9610 N.2       1 LIG        -0.2093
     12 C10        -3.0891    7.4070   -9.0907 C.2       1 LIG         0.0988
     13 N3         -3.6249    6.2653   -9.5522 N.3       1 LIG        -0.0765
     14 N4         -2.9611    7.6108   -7.7551 N.2       1 LIG        -0.2279
     15 C11        -2.3854    8.7514   -7.2909 C.2       1 LIG         0.0775
     16 C12        -2.1551    8.9618   -5.8491 C.3       1 LIG         0.0595
     17 N5         -1.2583    7.8827   -5.3102 N.3       1 LIG        -0.2854
     18 C13         0.1667    8.0200   -5.7799 C.3       1 LIG         0.0595
     19 C14         0.9540    6.7732   -5.7662 C.2       1 LIG         0.0775
     20 N6          1.5671    6.3508   -4.6297 N.2       1 LIG        -0.2261
     21 C15         2.3547    5.2469   -4.6101 C.2       1 LIG         0.1014
     22 N7          2.9247    4.9508   -3.4115 N.3       1 LIG         0.0327
     23 C16         4.0281    4.1883   -3.1078 C.2       1 LIG        -0.0350
     24 C17         4.5085    3.0823   -3.9317 C.2       1 LIG        -0.0568
     25 C18         5.7543    2.3319   -3.6777 C.2       1 LIG        -0.0703
     26 C19         6.4476    2.7706   -2.4558 C.2       1 LIG        -0.0820
     27 C20         5.9586    3.8170   -1.5856 C.2       1 LIG        -0.0661
     28 C21         4.7616    4.5047   -1.9174 C.2       1 LIG        -0.0518
     29 C22         4.3197    5.5900   -0.9843 C.3       1 LIG         0.0080
     30 C23         4.7110    6.9925   -1.5007 C.3       1 LIG        -0.0612
     31 N8          2.5204    4.5606   -5.7708 N.2       1 LIG        -0.2093
     32 C24         1.9059    4.9497   -6.9142 C.2       1 LIG         0.0988
     33 N9          2.0694    4.2448   -8.0439 N.3       1 LIG        -0.0765
     34 N10         1.1271    6.0579   -6.9091 N.2       1 LIG        -0.2279
     35 C25        -1.5091    7.4256   -3.8879 C.3       1 LIG         0.0108
     36 C26        -2.8952    6.7164   -3.8112 C.3       1 LIG        -0.0492
     37 C27        -1.3441    8.5481   -2.7998 C.3       1 LIG        -0.0228
     38 C28         0.1080    9.0577   -2.5388 C.3       1 LIG        -0.0458
     39 C29         0.2023    9.1008   -0.9908 C.3       1 LIG        -0.0408
     40 C30         0.3713    7.6699   -0.4148 C.3       1 LIG        -0.0501
     41 C31        -1.0265    7.0555   -0.6689 C.3       1 LIG        -0.0498
     42 C32        -1.7977    8.2360   -1.3318 C.3       1 LIG        -0.0368
     43 C33        -1.2313    9.4491   -0.5678 C.3       1 LIG        -0.0472
     44 N11        -1.9502    9.6792   -8.1791 N.2       1 LIG        -0.2261
     45 H1          0.7635   12.9772   -9.5506 H         1 LIG         0.0234
     46 H2          1.2315   12.0478  -10.9948 H         1 LIG         0.0234
     47 H3          1.3706   13.8223  -10.9948 H         1 LIG         0.0234
     48 H4         -1.3294   12.9857  -10.3260 H         1 LIG         0.0313
     49 H5         -0.6999   13.9873  -11.7973 H         1 LIG         0.0313
     50 H6         -0.5307   13.1387  -13.8657 H         1 LIG         0.0626
     51 H7         -1.0403   11.3316  -15.4830 H         1 LIG         0.0622
     52 H8         -1.7724    9.0964  -14.6648 H         1 LIG         0.0623
     53 H9         -2.0095    8.6721  -12.2366 H         1 LIG         0.0639
     54 H10        -1.2201   11.2813   -9.7132 H         1 LIG         0.1373
     55 H11        -4.6183    6.2076   -9.7258 H         1 LIG         0.1273
     56 H12        -3.0346    5.4643   -9.7258 H         1 LIG         0.1273
     57 H13        -1.6116    9.9024   -5.7593 H         1 LIG         0.0514
     58 H14        -3.1237    8.8435   -5.3632 H         1 LIG         0.0514
     59 H15         0.1101    8.3091   -6.8293 H         1 LIG         0.0514
     60 H16         0.6581    8.6745   -5.0600 H         1 LIG         0.0514
     61 H17         2.4528    5.3635   -2.6196 H         1 LIG         0.1373
     62 H18         3.8992    2.7991   -4.7900 H         1 LIG         0.0639
     63 H19         6.1238    1.5366   -4.3249 H         1 LIG         0.0623
     64 H20         7.3848    2.2889   -2.1771 H         1 LIG         0.0622
     65 H21         6.4943    4.0885   -0.6760 H         1 LIG         0.0626
     66 H22         3.2305    5.5486   -0.9795 H         1 LIG         0.0313
     67 H23         4.8753    5.4281   -0.0605 H         1 LIG         0.0313
     68 H24         4.8953    7.6532   -0.6535 H         1 LIG         0.0234
     69 H25         5.6141    6.9178   -2.1064 H         1 LIG         0.0234
     70 H26         3.8996    7.3961   -2.1064 H         1 LIG         0.0234
     71 H27         1.2653    3.9795   -8.5945 H         1 LIG         0.1273
     72 H28         2.9967    3.9795   -8.3439 H         1 LIG         0.1273
     73 H29        -0.7132    6.7115   -3.6766 H         1 LIG         0.0467
     74 H30        -3.1732    6.5741   -2.7669 H         1 LIG         0.0246
     75 H31        -3.6461    7.3318   -4.3065 H         1 LIG         0.0246
     76 H32        -2.8353    5.7472   -4.3065 H         1 LIG         0.0246
     77 H33        -1.9928    9.2681   -3.2987 H         1 LIG         0.0321
     78 H34         0.8035    8.2986   -2.8968 H         1 LIG         0.0273
     79 H35         0.1802   10.0806   -2.9084 H         1 LIG         0.0273
     80 H36         1.0038    9.7648   -0.6670 H         1 LIG         0.0303
     81 H37         1.0969    7.1357   -1.0282 H         1 LIG         0.0269
     82 H38         0.5205    7.7481    0.6621 H         1 LIG         0.0269
     83 H39        -0.9186    6.2596   -1.4057 H         1 LIG         0.0269
     84 H40        -1.4856    6.8454    0.2971 H         1 LIG         0.0269
     85 H41        -2.8678    8.0300   -1.3073 H         1 LIG         0.0306
     86 H42        -1.5502   10.3788   -1.0390 H         1 LIG         0.0272
     87 H43        -1.3530    9.3130    0.5068 H         1 LIG         0.0272
@<TRIPOS>BOND
     1    1    2 1  
     2    2    3 1  
     3    3    4 2  
     4    4    5 1  
     5    5    6 2  
     6    6    7 1  
     7    7    8 2  
     8    3    8 1  
     9    8    9 1  
    10    9   10 1  
    11   10   11 2  
    12   11   12 1  
    13   12   13 1  
    14   12   14 2  
    15   14   15 1  
    16   15   16 1  
    17   16   17 1  
    18   17   18 1  
    19   18   19 1  
    20   19   20 2  
    21   20   21 1  
    22   21   22 1  
    23   22   23 1  
    24   23   24 2  
    25   24   25 1  
    26   25   26 2  
    27   26   27 1  
    28   27   28 2  
    29   23   28 1  
    30   28   29 1  
    31   29   30 1  
    32   21   31 2  
    33   31   32 1  
    34   32   33 1  
    35   32   34 2  
    36   19   34 1  
    37   17   35 1  
    38   35   36 1  
    39   35   37 1  
    40   37   38 1  
    41   38   39 1  
    42   39   40 1  
    43   40   41 1  
    44   41   42 1  
    45   37   42 1  
    46   42   43 1  
    47   39   43 1  
    48   15   44 2  
    49   10   44 1  
    50    1   45 1  
    51    1   46 1  
    52    1   47 1  
    53    2   48 1  
    54    2   49 1  
    55    4   50 1  
    56    5   51 1  
    57    6   52 1  
    58    7   53 1  
    59    9   54 1  
    60   13   55 1  
    61   13   56 1  
    62   16   57 1  
    63   16   58 1  
    64   18   59 1  
    65   18   60 1  
    66   22   61 1  
    67   24   62 1  
    68   25   63 1  
    69   26   64 1  
    70   27   65 1  
    71   29   66 1  
    72   29   67 1  
    73   30   68 1  
    74   30   69 1  
    75   30   70 1  
    76   33   71 1  
    77   33   72 1  
    78   35   73 1  
    79   36   74 1  
    80   36   75 1  
    81   36   76 1  
    82   37   77 1  
    83   38   78 1  
    84   38   79 1  
    85   39   80 1  
    86   40   81 1  
    87   40   82 1  
    88   41   83 1  
    89   41   84 1  
    90   42   85 1  
    91   43   86 1  
    92   43   87 1  
