#

@<TRIPOS>MOLECULE
LIG
 53  55  0 0 0
SMALL
GASTEIGER

@<TRIPOS>ATOM
      1 C1         -8.1260    9.2277   -8.1556 C.3       1 LIG        -0.0612
      2 C2         -8.6474    9.8130   -6.8220 C.3       1 LIG         0.0080
      3 C3         -9.6852    8.9290   -6.2055 C.2       1 LIG        -0.0518
      4 C4         -9.3771    7.9381   -5.2268 C.2       1 LIG        -0.0350
      5 N1         -8.0714    7.7917   -4.8424 N.3       1 LIG         0.0327
      6 C5         -7.5488    7.4242   -3.6445 C.2       1 LIG         0.1014
      7 N2         -8.2569    7.0184   -2.5585 N.2       1 LIG        -0.2093
      8 C6         -7.6268    6.7232   -1.3934 C.2       1 LIG         0.0988
      9 N3         -8.3455    6.3172   -0.3369 N.3       1 LIG        -0.0765
     10 N4         -6.2769    6.8450   -1.3031 N.2       1 LIG        -0.2279
     11 C7         -5.5525    7.2464   -2.3806 C.2       1 LIG         0.0775
     12 C8         -4.0832    7.3940   -2.3206 C.3       1 LIG         0.0591
     13 N5         -3.3361    6.1344   -2.0078 N.3       1 LIG        -0.2913
     14 C9         -2.8190    6.0093   -0.6162 C.3       1 LIG        -0.0122
     15 C10        -3.6196    4.8966   -2.8206 C.3       1 LIG         0.0416
     16 C11        -2.3022    4.3152   -3.4019 C.3       1 LIG        -0.0445
     17 C12        -4.4067    3.8623   -2.0889 C.2       1 LIG         0.0085
     18 C13        -5.7542    3.5185   -2.2775 C.2       1 LIG        -0.0224
     19 C14        -6.2481    2.4919   -1.4502 C.2       1 LIG        -0.0336
     20 C15        -5.3246    1.9503   -0.5490 C.2       1 LIG         0.0121
     21 C16        -5.5557    0.8730    0.4261 C.3       1 LIG         0.0231
     22 S1         -3.8136    2.7916   -0.8275 S.3       1 LIG        -0.2328
     23 N6         -6.2018    7.5280   -3.5391 N.2       1 LIG        -0.2261
     24 C17       -10.4218    7.1252   -4.7219 C.2       1 LIG        -0.0568
     25 C18       -11.7495    7.3020   -5.1498 C.2       1 LIG        -0.0703
     26 C19       -12.0538    8.2898   -6.0978 C.2       1 LIG        -0.0820
     27 C20       -11.0283    9.0873   -6.6288 C.2       1 LIG        -0.0661
     28 H1         -8.1451    8.1389   -8.1067 H         1 LIG         0.0234
     29 H2         -8.7616    9.5658   -8.9740 H         1 LIG         0.0234
     30 H3         -7.1039    9.5658   -8.3259 H         1 LIG         0.0234
     31 H4         -7.8086    9.8145   -6.1259 H         1 LIG         0.0313
     32 H5         -9.1579   10.7456   -7.0621 H         1 LIG         0.0313
     33 H6         -7.3840    7.9857   -5.5564 H         1 LIG         0.1373
     34 H7         -7.8929    6.1643    0.5530 H         1 LIG         0.1273
     35 H8         -9.3394    6.1643   -0.4309 H         1 LIG         0.1273
     36 H9         -3.7803    7.6779   -3.3284 H         1 LIG         0.0514
     37 H10        -3.8948    8.0678   -1.4847 H         1 LIG         0.0514
     38 H11        -2.7229    4.9548   -0.3578 H         1 LIG         0.0394
     39 H12        -1.8436    6.4908   -0.5465 H         1 LIG         0.0394
     40 H13        -3.5120    6.4908    0.0736 H         1 LIG         0.0394
     41 H14        -4.2935    5.2095   -3.6181 H         1 LIG         0.0523
     42 H15        -1.6420    4.0238   -2.5850 H         1 LIG         0.0250
     43 H16        -2.5292    3.4426   -4.0144 H         1 LIG         0.0250
     44 H17        -1.8106    5.0710   -4.0144 H         1 LIG         0.0250
     45 H18        -6.3778    4.0171   -3.0196 H         1 LIG         0.0634
     46 H19        -7.2781    2.1395   -1.5039 H         1 LIG         0.0634
     47 H20        -5.4699    1.2728    1.4365 H         1 LIG         0.0288
     48 H21        -6.5544    0.4607    0.2821 H         1 LIG         0.0288
     49 H22        -4.8141    0.0873    0.2821 H         1 LIG         0.0288
     50 H23       -10.1997    6.3486   -3.9900 H         1 LIG         0.0639
     51 H24       -12.5432    6.6731   -4.7464 H         1 LIG         0.0623
     52 H25       -13.0843    8.4374   -6.4211 H         1 LIG         0.0622
     53 H26       -11.2779    9.8381   -7.3785 H         1 LIG         0.0626
@<TRIPOS>BOND
     1    1    2 1  
     2    2    3 1  
     3    3    4 2  
     4    4    5 1  
     5    5    6 1  
     6    6    7 2  
     7    7    8 1  
     8    8    9 1  
     9    8   10 2  
    10   10   11 1  
    11   11   12 1  
    12   12   13 1  
    13   13   14 1  
    14   13   15 1  
    15   15   16 1  
    16   15   17 1  
    17   17   18 2  
    18   18   19 1  
    19   19   20 2  
    20   20   21 1  
    21   20   22 1  
    22   17   22 1  
    23   11   23 2  
    24    6   23 1  
    25    4   24 1  
    26   24   25 2  
    27   25   26 1  
    28   26   27 2  
    29    3   27 1  
    30    1   28 1  
    31    1   29 1  
    32    1   30 1  
    33    2   31 1  
    34    2   32 1  
    35    5   33 1  
    36    9   34 1  
    37    9   35 1  
    38   12   36 1  
    39   12   37 1  
    40   14   38 1  
    41   14   39 1  
    42   14   40 1  
    43   15   41 1  
    44   16   42 1  
    45   16   43 1  
    46   16   44 1  
    47   18   45 1  
    48   19   46 1  
    49   21   47 1  
    50   21   48 1  
    51   21   49 1  
    52   24   50 1  
    53   25   51 1  
    54   26   52 1  
    55   27   53 1  
