#

@<TRIPOS>MOLECULE
LIG
 41  42  0 0 0
SMALL
GASTEIGER

@<TRIPOS>ATOM
      1 C1         -0.8765   -1.0512    1.6431 C.3       1 LIG        -0.0018
      2 N1         -0.6097   -1.9850    2.7158 N.3       1 LIG        -0.0185
      3 C2         -0.6288   -1.5353    4.0972 C.3       1 LIG         0.0789
      4 N2         -1.4013   -2.3423    5.0027 N.3       1 LIG        -0.0315
      5 C3         -0.9346   -2.9943    6.0938 C.2       1 LIG        -0.0387
      6 N3         -1.9179   -3.6415    6.7477 N.2       1 LIG        -0.2311
      7 C4         -3.0383   -3.3831    6.0605 C.2       1 LIG         0.0103
      8 C5         -4.3571   -3.7850    6.3173 C.2       1 LIG         0.0205
      9 C6         -5.3821   -3.3561    5.4438 C.2       1 LIG        -0.0008
     10 Cl1        -6.9646   -3.8587    5.7988 Cl        1 LIG        -0.0818
     11 C7         -5.0782   -2.5329    4.3173 C.2       1 LIG        -0.0107
     12 C8         -6.1404   -2.0582    3.3949 C.3       1 LIG         0.0090
     13 C9         -3.7301   -2.1550    4.0816 C.2       1 LIG        -0.0268
     14 C10        -2.7260   -2.5790    4.9686 C.2       1 LIG        -0.0512
     15 C11        -0.2323   -3.2762    2.3959 C.2       1 LIG         0.0562
     16 O1          0.0081   -3.5942    1.2062 O.2       1 LIG        -0.2505
     17 O2         -0.1315   -4.2394    3.3659 O.3       1 LIG        -0.1953
     18 C12         0.3132   -5.6139    3.3170 C.3       1 LIG         0.0710
     19 C13         1.8565   -5.6445    3.1182 C.3       1 LIG        -0.0357
     20 C14        -0.3954   -6.4407    2.2003 C.3       1 LIG        -0.0357
     21 C15        -0.0655   -6.2122    4.7047 C.3       1 LIG        -0.0357
     22 H1         -1.1035   -1.6017    0.7302 H         1 LIG         0.0400
     23 H2         -1.7271   -0.4242    1.9103 H         1 LIG         0.0400
     24 H3          0.0002   -0.4242    1.4808 H         1 LIG         0.0400
     25 H4          0.4002   -1.6167    4.4473 H         1 LIG         0.0650
     26 H5         -1.1248   -0.5647    4.0838 H         1 LIG         0.0650
     27 H6          0.1090   -2.9979    6.4086 H         1 LIG         0.1016
     28 H7         -4.5805   -4.4168    7.1769 H         1 LIG         0.0661
     29 H8         -6.9833   -1.6816    3.9744 H         1 LIG         0.0280
     30 H9         -5.7459   -1.2597    2.7665 H         1 LIG         0.0280
     31 H10        -6.4720   -2.8849    2.7665 H         1 LIG         0.0280
     32 H11        -3.4665   -1.5403    3.2210 H         1 LIG         0.0646
     33 H12         2.3481   -5.6543    4.0910 H         1 LIG         0.0259
     34 H13         2.1335   -6.5402    2.5621 H         1 LIG         0.0259
     35 H14         2.1688   -4.7605    2.5621 H         1 LIG         0.0259
     36 H15        -0.2686   -7.5047    2.4001 H         1 LIG         0.0259
     37 H16        -1.4579   -6.1976    2.1870 H         1 LIG         0.0259
     38 H17         0.0450   -6.1976    1.2333 H         1 LIG         0.0259
     39 H18        -0.0499   -7.3006    4.6476 H         1 LIG         0.0259
     40 H19         0.6529   -5.8773    5.4530 H         1 LIG         0.0259
     41 H20        -1.0643   -5.8773    4.9844 H         1 LIG         0.0259
@<TRIPOS>BOND
     1    1    2 1  
     2    2    3 1  
     3    3    4 1  
     4    4    5 1  
     5    5    6 2  
     6    6    7 1  
     7    7    8 2  
     8    8    9 1  
     9    9   10 1  
    10    9   11 2  
    11   11   12 1  
    12   11   13 1  
    13   13   14 2  
    14    4   14 1  
    15    7   14 1  
    16    2   15 1  
    17   15   16 2  
    18   15   17 1  
    19   17   18 1  
    20   18   19 1  
    21   18   20 1  
    22   18   21 1  
    23    1   22 1  
    24    1   23 1  
    25    1   24 1  
    26    3   25 1  
    27    3   26 1  
    28    5   27 1  
    29    8   28 1  
    30   12   29 1  
    31   12   30 1  
    32   12   31 1  
    33   13   32 1  
    34   19   33 1  
    35   19   34 1  
    36   19   35 1  
    37   20   36 1  
    38   20   37 1  
    39   20   38 1  
    40   21   39 1  
    41   21   40 1  
    42   21   41 1  
